78
Structure1
C          1.40450       -0.00000        0.00000
C         -1.40450       -0.00000        0.00000
C         -0.70230       -1.21640        0.00000
C          0.70230       -1.21640        0.00000
H          2.50790       -0.00000        0.00000
H         -2.50790       -0.00000        0.00000
H         -1.25400       -2.17190        0.00000
H          1.25400       -2.17200        0.00000
C          0.70220        1.21640        0.00000
C         -0.70230        1.21640        0.00000
C         -1.40460        2.43270        0.00000
C          1.40460        2.43270        0.00000
H         -2.50800        2.43270        0.00000
H          2.50800        2.43270        0.00000
C         -0.70230        3.64910        0.00000
C          0.70230        3.64910        0.00000
C         -0.70240        6.08180        0.00000
C         -1.40470        4.86540        0.00000
H         -1.25410        7.03740        0.00000
H         -2.50810        4.86540        0.00000
C          1.40450        4.86550        0.00000
C          0.70220        6.08190        0.00000
C          1.40440        7.29820        0.00000
C          2.80900        4.86540        0.00000
H          0.85260        8.25380        0.00000
H          3.36080        3.90990        0.00000
C          2.80890        7.29820        0.00000
C          3.51130        6.08190        0.00000
C          4.91570        8.51470        0.00000
C          3.51110        8.51470        0.00000
H          5.46730        9.47030        0.00000
H          2.95930        9.47020        0.00000
C          4.91580        6.08200        0.00000
C          5.61800        7.29840        0.00000
C          7.02250        7.29840        0.00000
C          5.61800        4.86560        0.00000
H          7.57420        8.25410        0.00000
H          5.06640        3.91000        0.00000
C          7.72480        6.08210        0.00000
C          7.02260        4.86560        0.00000
C          7.72500        3.64940        0.00000
C          9.12950        3.64950        0.00000
H          7.17330        2.69370        0.00000
H          9.68130        2.69400        0.00000
C          9.83170        4.86590        0.00000
C          9.12940        6.08230        0.00000
C          9.83160        7.29860        0.00000
C         11.23630        4.86590        0.00000
H          9.27980        8.25420        0.00000
H         11.78800        3.91030        0.00000
C         11.23610        7.29870        0.00000
C         11.93850        6.08240        0.00000
C         13.34300        6.08250        0.00000
C         14.04510        7.29890        0.00000
H         13.89480        5.12690        0.00000
H         15.14850        7.29900        0.00000
C         13.34280        8.51520        0.00000
C         11.93820        8.51520        0.00000
C         11.23590        9.73140        0.00000
C         14.04500        9.73160        0.00000
H         10.13240        9.73140        0.00000
H         15.14850        9.73170        0.00000
C         11.93810       10.94790        0.00000
C         13.34270       10.94800        0.00000
C         14.04480       12.16440        0.00000
C         13.34240       13.38060        0.00000
H         15.14820       12.16450        0.00000
H         13.89400       14.33630        0.00000
C         11.93780       13.38060        0.00000
C         11.23560       12.16410        0.00000
C          9.83110       12.16400        0.00000
C          9.12880       13.38040        0.00000
C          9.83100       14.59680        0.00000
C         11.23560       14.59690        0.00000
H          9.27950       11.20840        0.00000
H          8.02540       13.38030        0.00000
H          9.27920       15.55230        0.00000
H         11.78720       15.55260        0.00000
