96
Structure1
C         -0.70230        1.21640        0.00000
C          0.70230       -1.21640        0.00000
H         -1.25400        2.17200        0.00000
H          1.25400       -2.17200        0.00000
C          1.40450        0.00000        0.00000
C          0.70220        1.21640        0.00000
C          3.51130        1.21630        0.00000
C          2.80910       -0.00010        0.00000
C          3.51130       -1.21640        0.00000
C          4.91590        1.21640        0.00000
H          2.95960       -2.17200        0.00000
H          5.46760        2.17200        0.00000
C          1.40450        2.43270        0.00000
C          2.80910        2.43270        0.00000
C          3.51130        3.64910        0.00000
C          0.70210        3.64900        0.00000
H          4.61470        3.64910        0.00000
H         -0.40130        3.64910        0.00000
C          2.80900        4.86540        0.00000
C          1.40440        4.86550        0.00000
C          0.70220        6.08180        0.00000
C          1.40450        7.29820        0.00000
C          0.70230        8.51460        0.00000
C         -0.70230        6.08180        0.00000
H          1.25410        9.47010        0.00000
H         -1.25400        5.12620        0.00000
C         -0.70220        8.51460        0.00000
C         -1.40460        7.29820        0.00000
C         -2.80910        7.29820        0.00000
C         -3.51120        8.51470        0.00000
C         -2.80900        9.73100        0.00000
C         -1.40440        9.73100        0.00000
H         -3.36080        6.34270        0.00000
H         -4.61460        8.51470        0.00000
H         -3.36060       10.68660        0.00000
H         -0.85260       10.68660        0.00000
C          2.80910        7.29820        0.00000
C          3.51140        6.08170        0.00000
C          4.91590        6.08170        0.00000
C          3.51130        8.51450        0.00000
H          5.46760        5.12610        0.00000
H          2.95970        9.47020        0.00000
C          5.61820        7.29810        0.00000
C          4.91590        8.51450        0.00000
C          5.61820        9.73080        0.00000
C          7.02280        9.73070        0.00000
H          5.06660       10.68640        0.00000
H          7.57450       10.68620        0.00000
C          7.72500        8.51430        0.00000
C          7.02270        7.29790        0.00000
C          7.72490        6.08160        0.00000
C          9.12940        6.08160        0.00000
H          7.17310        5.12600        0.00000
H          9.68110        5.12600        0.00000
C         -1.40450        0.00000        0.00000
C         -0.70230       -1.21640        0.00000
C         -1.40460       -2.43270        0.00000
C         -2.80910       -2.43260        0.00000
H         -0.85290       -3.38830        0.00000
H         -3.36080       -3.38820        0.00000
C         -3.51140       -1.21630        0.00000
C         -2.80910        0.00010        0.00000
C         -3.51130        1.21650        0.00000
C         -4.91590        1.21640        0.00000
H         -2.95960        2.17200        0.00000
H         -5.46750        2.17200        0.00000
C         -5.61820        0.00010        0.00000
C         -4.91590       -1.21630        0.00000
C         -5.61820       -2.43270        0.00000
C         -7.02270       -2.43250        0.00000
C         -7.72500       -1.21620        0.00000
C         -7.02270        0.00020        0.00000
H         -5.06650       -3.38830        0.00000
H         -7.57450       -3.38810        0.00000
H         -8.82840       -1.21620        0.00000
H         -7.57440        0.95580        0.00000
C          4.91590       -1.21630        0.00000
C          5.61820        0.00010        0.00000
C          7.02270        0.00000        0.00000
C          7.72490       -1.21640        0.00000
C          7.02270       -2.43280        0.00000
C          5.61810       -2.43270        0.00000
H          7.57440        0.95560        0.00000
H          8.82830       -1.21640        0.00000
H          7.57440       -3.38830        0.00000
H          5.06640       -3.38830        0.00000
C          9.83180        7.29790        0.00000
C          9.12960        8.51430        0.00000
C          9.83190        9.73060        0.00000
C         11.23640        9.73050        0.00000
C         11.93870        8.51410        0.00000
C         11.23630        7.29770        0.00000
H          9.28020       10.68630        0.00000
H         11.78820       10.68600        0.00000
H         13.04200        8.51410        0.00000
H         11.78800        6.34210        0.00000
