54
Structure1
C          1.40450       -0.00000        0.00000
C         -1.40450       -0.00000        0.00000
C         -0.70230       -1.21640        0.00000
C          0.70230       -1.21640        0.00000
H          2.50790       -0.00000        0.00000
H         -2.50790       -0.00000        0.00000
H         -1.25400       -2.17190        0.00000
H          1.25400       -2.17200        0.00000
C          0.70220        1.21640        0.00000
C         -0.70230        1.21640        0.00000
C         -1.40460        2.43270        0.00000
C          1.40460        2.43270        0.00000
H         -2.50800        2.43270        0.00000
H          2.50800        2.43270        0.00000
C         -0.70230        3.64910        0.00000
C          0.70230        3.64910        0.00000
C         -0.70240        6.08180        0.00000
C         -1.40470        4.86540        0.00000
H         -1.25410        7.03740        0.00000
H         -2.50810        4.86540        0.00000
C          1.40450        4.86550        0.00000
C          0.70220        6.08190        0.00000
C          1.40440        7.29820        0.00000
C          2.80900        4.86540        0.00000
H          0.85260        8.25380        0.00000
H          3.36080        3.90990        0.00000
C          2.80890        7.29820        0.00000
C          3.51130        6.08190        0.00000
C          4.91570        8.51470        0.00000
C          3.51110        8.51470        0.00000
H          5.46730        9.47030        0.00000
H          2.95930        9.47020        0.00000
C          4.91580        6.08200        0.00000
C          5.61800        7.29840        0.00000
C          7.02250        7.29840        0.00000
C          7.72480        6.08210        0.00000
H          7.57420        8.25410        0.00000
H          8.82820        6.08210        0.00000
C          7.02260        4.86570        0.00000
C          5.61800        4.86560        0.00000
C          4.91590        3.64920        0.00000
C          7.72500        3.64940        0.00000
H          3.81240        3.64920        0.00000
H          8.82840        3.64940        0.00000
C          5.61820        2.43290        0.00000
C          7.02280        2.43290        0.00000
C          7.72510        1.21660        0.00000
C          7.02280        0.00030        0.00000
C          5.61830        0.00010        0.00000
C          4.91590        1.21650        0.00000
H          8.82850        1.21670        0.00000
H          7.57450       -0.95530        0.00000
H          5.06670       -0.95540        0.00000
H          3.81250        1.21650        0.00000
